<?xml version="1.0" encoding="UTF-8"?>

<!-- generated on 2022-01-01 21:29:10 by Eclipse SUMO netedit Version 1.11.0
<configuration xmlns:xsi="http://www.w3.org/2001/XMLSchema-instance" xsi:noNamespaceSchemaLocation="http://sumo.dlr.de/xsd/netconvertConfiguration.xsd">

    <input>
        <sumo-net-file value="V:\PythonProjects\SUMOtest\map\LR.net.xml"/>
    </input>

    <output>
        <output-file value="V:\PythonProjects\SUMOtest\map\LR.net.xml"/>
    </output>

    <processing>
        <geometry.min-radius.fix.railways value="false"/>
        <geometry.max-grade.fix value="false"/>
        <offset.disable-normalization value="true"/>
        <lefthand value="false"/>
    </processing>

    <junctions>
        <no-turnarounds value="true"/>
        <junctions.corner-detail value="5"/>
        <junctions.limit-turn-speed value="5.5"/>
        <rectangular-lane-cut value="false"/>
    </junctions>

    <pedestrian>
        <walkingareas value="false"/>
    </pedestrian>

    <netedit>
        <route-files value="V:\PythonProjects\SUMOtest\map\LR.rou.xml"/>
    </netedit>

    <report>
        <aggregate-warnings value="5"/>
    </report>

</configuration>
-->

<net version="1.9" junctionCornerDetail="5" limitTurnSpeed="5.50" xmlns:xsi="http://www.w3.org/2001/XMLSchema-instance" xsi:noNamespaceSchemaLocation="http://sumo.dlr.de/xsd/net_file.xsd">

    <location netOffset="0.00,0.00" convBoundary="0.00,0.00,1500.00,0.00" origBoundary="-10000000000.00,-10000000000.00,10000000000.00,10000000000.00" projParameter="!"/>

    <edge id=":p_e_0" function="internal">
        <lane id=":p_e_0_0" index="0" speed="46.95" length="1.88" width="3.75" shape="1000.00,-5.62 1000.00,-5.62"/>
        <lane id=":p_e_0_1" index="1" speed="46.95" length="1.88" width="3.75" shape="1000.00,-1.88 1000.00,-5.62"/>
    </edge>

    <edge id="E0" from="p_s" to="p_e" priority="-1">
        <lane id="E0_0" index="0" speed="80.00" length="1000.00" width="3.75" shape="0.00,-5.62 1000.00,-5.62"/>
        <lane id="E0_1" index="1" speed="80.00" length="1000.00" width="3.75" shape="0.00,-1.88 1000.00,-1.88"/>
    </edge>
    <edge id="E1" from="p_e" to="p_inf" priority="-1">
        <lane id="E1_0" index="0" speed="13.89" length="500.00" width="3.75" shape="1000.00,-5.62 1500.00,-5.62"/>
        <lane id="E1_1" index="1" speed="13.89" length="500.00" width="3.75" shape="1000.00,-1.88 1500.00,-1.88"/>
    </edge>

    <junction id="p_e" type="priority" x="1000.00" y="0.00" incLanes="E0_0 E0_1" intLanes=":p_e_0_0 :p_e_0_1" shape="1000.00,0.00 1000.00,-7.50 1000.00,0.00">
        <request index="0" response="10" foes="10" cont="0"/>
        <request index="1" response="00" foes="01" cont="0"/>
    </junction>
    <junction id="p_inf" type="dead_end" x="1500.00" y="0.00" incLanes="E1_0 E1_1" intLanes="" shape="1500.00,-7.50 1500.00,0.00"/>
    <junction id="p_s" type="dead_end" x="0.00" y="0.00" incLanes="" intLanes="" shape="0.00,0.00 0.00,-7.50"/>

    <connection from="E0" to="E1" fromLane="0" toLane="0" via=":p_e_0_0" dir="s" state="m"/>
    <connection from="E0" to="E1" fromLane="1" toLane="0" keepClear="0" via=":p_e_0_1" dir="s" state="M"/>

    <connection from=":p_e_0" to="E1" fromLane="0" toLane="0" dir="s" state="M"/>
    <connection from=":p_e_0" to="E1" fromLane="1" toLane="0" dir="s" state="M"/>

</net>
