<?xml version="1.0" encoding="UTF-8"?>

<!-- generated on 2022-01-01 21:25:03 by Eclipse SUMO netedit Version 1.11.0
-->

<routes xmlns:xsi="http://www.w3.org/2001/XMLSchema-instance" xsi:noNamespaceSchemaLocation="http://sumo.dlr.de/xsd/routes_file.xsd">
<!--    <vType id="vType_HDV" maxSpeed="120.00" speedFactor="normc(1.00,0.10,0.20,2.00)" laneChangeModel="SL2015" carFollowModel="IDM"/>-->
    <vType id="vType_HDV" maxSpeed="33.33" laneChangeModel="SL2015" carFollowModel="IDM"/>
    <route edges="E0 E1" color="yellow" id="route_0"/>
    <route edges="E0 E1" color="yellow" id="route_1"/>

<!--    probability来定义两条lane-->
    <flow id="flow_0" type="vType_HDV" route="route_0" begin="0.00" end="100.00"
      probability="0.5" departSpeed="22.22" departLane="0" departPosLat="random"
    />
    <flow id="flow_1" type="vType_HDV" route="route_0" begin="0.00" end="100.00"
      probability="0.5" departSpeed="22.22" departLane="1" departPosLat="random"
    />

<!--    vehsPerHour="720000.00"-->
<!--    probability="0.2"-->
<!--    最左侧的lane-->
<!--    <flow id="flow_0" type="vType_HDV" route="route_0" begin="0.00" end="100.00"-->
<!--          vehsPerHour="1800.00"-->
<!--          departSpeed="22.22" departLane="1" departPosLat="random"-->
<!--    />-->
<!--    最右侧的lane-->
<!--    <flow id="flow_1" type="vType_HDV" route="route_1" begin="0.00" end="100.00"-->
<!--          vehsPerHour="1800.00"-->
<!--          departSpeed="22.22" departLane="0" departPosLat="random"-->
<!--    />-->
</routes>
