<?xml version="1.0" encoding="UTF-8"?>

<!-- generated on 2021-12-29 22:15:05 by Eclipse SUMO netedit Version 1.11.0
-->

<routes xmlns:xsi="http://www.w3.org/2001/XMLSchema-instance" xsi:noNamespaceSchemaLocation="http://sumo.dlr.de/xsd/routes_file.xsd">
    <route edges="E6 E7 E8 E9" color="yellow" id="route_0"/>
    <route edges="E2 -E11 E4 E5" color="yellow" id="route_1"/>
    <flow id="flow_0" begin="0.00" route="route_1" end="0.00" number="3"/>
    <flow id="flow_1" begin="0.00" route="route_0" end="0.00" number="5"/>
</routes>
