<?xml version="1.0" encoding="UTF-8"?>

<!-- generated on 2021-12-29 22:15:02 by Eclipse SUMO netedit Version 1.11.0
<configuration xmlns:xsi="http://www.w3.org/2001/XMLSchema-instance" xsi:noNamespaceSchemaLocation="http://sumo.dlr.de/xsd/netconvertConfiguration.xsd">

    <input>
        <sumo-net-file value="V:\PythonProjects\SUMOtest\map\test.net.xml"/>
    </input>

    <output>
        <output-file value="V:\PythonProjects\SUMOtest\map\test.net.xml"/>
    </output>

    <processing>
        <geometry.min-radius.fix.railways value="false"/>
        <geometry.max-grade.fix value="false"/>
        <offset.disable-normalization value="true"/>
        <lefthand value="false"/>
    </processing>

    <junctions>
        <no-turnarounds value="true"/>
        <junctions.corner-detail value="5"/>
        <junctions.limit-turn-speed value="5.5"/>
        <rectangular-lane-cut value="false"/>
    </junctions>

    <pedestrian>
        <walkingareas value="false"/>
    </pedestrian>

    <netedit>
        <additional-files value="V:\PythonProjects\SUMOtest\map\test.add.xml"/>
    </netedit>

    <report>
        <aggregate-warnings value="5"/>
    </report>

</configuration>
-->

<additional xmlns:xsi="http://www.w3.org/2001/XMLSchema-instance" xsi:noNamespaceSchemaLocation="http://sumo.dlr.de/xsd/additional_file.xsd">
    <rerouter id="rerouter_0" edges="E5" pos="34.24,83.60">
        <interval begin="0.00" end="3600.00">
            <destProbReroute id="E2" probability="1.00"/>
        </interval>
    </rerouter>
    <rerouter id="rerouter_1" edges="E2" pos="80.64,39.59">
        <interval begin="0.00" end="3600.00">
            <destProbReroute id="E5" probability="1.00"/>
        </interval>
    </rerouter>
    <rerouter id="rerouter_2" edges="E6" pos="-1.34,22.47">
        <interval begin="0.00" end="3600.00">
            <destProbReroute id="E9" probability="1.00"/>
        </interval>
    </rerouter>
    <rerouter id="rerouter_3" edges="E9" pos="67.97,-29.36">
        <interval begin="0.00" end="3600.00">
            <destProbReroute id="E6" probability="1.00"/>
        </interval>
    </rerouter>
</additional>
