<?xml version="1.0" encoding="UTF-8"?>

<!-- generated on 2021-12-29 15:55:45 by Eclipse SUMO netedit Version 1.11.0
<configuration xmlns:xsi="http://www.w3.org/2001/XMLSchema-instance" xsi:noNamespaceSchemaLocation="http://sumo.dlr.de/xsd/netconvertConfiguration.xsd">

    <output>
        <output-file value="V:\PythonProjects\SUMOtest\map\test.net.xml"/>
    </output>

    <processing>
        <offset.disable-normalization value="true"/>
    </processing>

    <junctions>
        <no-turnarounds value="true"/>
    </junctions>

    <report>
        <aggregate-warnings value="5"/>
    </report>

</configuration>
-->

<net version="1.9" junctionCornerDetail="5" limitTurnSpeed="5.50" xmlns:xsi="http://www.w3.org/2001/XMLSchema-instance" xsi:noNamespaceSchemaLocation="http://sumo.dlr.de/xsd/net_file.xsd">

    <location netOffset="0.00,0.00" convBoundary="-17.26,-52.14,84.39,87.63" origBoundary="10000000000.00,10000000000.00,-10000000000.00,-10000000000.00" projParameter="!"/>

    <edge id=":J1_0" function="internal">
        <lane id=":J1_0_0" index="0" speed="4.17" length="1.30" shape="36.10,85.55 36.40,85.69 36.71,85.77 37.03,85.78 37.36,85.72"/>
    </edge>
    <edge id=":J10_0" function="internal">
        <lane id=":J10_0_0" index="0" speed="4.19" length="1.27" shape="71.91,-22.08 72.06,-21.80 72.15,-21.50 72.17,-21.19 72.13,-20.87"/>
    </edge>
    <edge id=":J2_0" function="internal">
        <lane id=":J2_0_0" index="0" speed="4.00" length="1.76" shape="75.13,75.30 75.56,75.13 75.89,74.87 76.13,74.52 76.27,74.08"/>
    </edge>
    <edge id=":J3_0" function="internal">
        <lane id=":J3_0_0" index="0" speed="4.16" length="1.32" shape="82.54,43.69 82.58,43.35 82.55,43.03 82.45,42.72 82.28,42.43"/>
    </edge>
    <edge id=":J4_0" function="internal">
        <lane id=":J4_0_0" index="0" speed="7.35" length="8.76" shape="65.80,19.44 64.04,17.38 62.24,16.07 60.39,15.50 58.51,15.68"/>
    </edge>
    <edge id=":J4_1" function="internal">
        <lane id=":J4_1_0" index="0" speed="9.37" length="8.84" shape="65.94,6.74 64.86,10.02 63.27,12.60 61.51,14.17"/>
    </edge>
    <edge id=":J4_2" function="internal">
        <lane id=":J4_2_0" index="0" speed="9.37" length="3.38" shape="61.51,14.17 61.15,14.49 58.51,15.68"/>
    </edge>
    <edge id=":J5_0" function="internal">
        <lane id=":J5_0_0" index="0" speed="7.33" length="7.84" shape="15.16,28.29 13.61,29.04 12.40,30.31 11.51,32.09 10.95,34.39"/>
    </edge>
    <edge id=":J5_1" function="internal">
        <lane id=":J5_1_0" index="0" speed="10.10" length="11.84" shape="15.16,28.29 12.53,28.67 9.81,28.31 7.01,27.21 4.12,25.37"/>
    </edge>
    <edge id=":J6_0" function="internal">
        <lane id=":J6_0_0" index="0" speed="3.97" length="1.90" shape="6.09,66.21 6.07,66.71 6.19,67.14 6.45,67.51 6.84,67.82"/>
    </edge>
    <edge id=":J7_0" function="internal">
        <lane id=":J7_0_0" index="0" speed="3.96" length="1.95" shape="-18.22,8.51 -18.59,8.16 -18.81,7.75 -18.88,7.29 -18.80,6.79"/>
    </edge>
    <edge id=":J8_0" function="internal">
        <lane id=":J8_0_0" index="0" speed="3.96" length="1.96" shape="-2.48,-48.98 -2.28,-49.45 -1.97,-49.80 -1.56,-50.03 -1.06,-50.13"/>
    </edge>
    <edge id=":J9_0" function="internal">
        <lane id=":J9_0_0" index="0" speed="4.01" length="1.71" shape="50.54,-53.73 50.98,-53.71 51.38,-53.58 51.71,-53.35 52.00,-53.00"/>
    </edge>

    <edge id="-E11" from="J4" to="J5" priority="-1">
        <lane id="-E11_0" index="0" speed="13.89" length="45.14" shape="58.51,15.68 15.16,28.29"/>
    </edge>
    <edge id="E0" from="J1" to="J2" priority="-1">
        <lane id="E0_0" index="0" speed="13.89" length="39.18" shape="37.36,85.72 75.13,75.30"/>
    </edge>
    <edge id="E1" from="J2" to="J3" priority="-1">
        <lane id="E1_0" index="0" speed="13.89" length="31.04" shape="76.27,74.08 82.54,43.69"/>
    </edge>
    <edge id="E10" from="J10" to="J4" priority="-1">
        <lane id="E10_0" index="0" speed="13.89" length="28.30" shape="72.13,-20.87 65.94,6.74"/>
    </edge>
    <edge id="E11" from="J5" to="J4" priority="-1">
        <lane id="E11_0" index="0" speed="13.89" length="45.14" shape="14.27,25.21 57.62,12.61"/>
    </edge>
    <edge id="E2" from="J3" to="J4" priority="-1">
        <lane id="E2_0" index="0" speed="13.89" length="28.28" shape="82.28,42.43 65.80,19.44"/>
    </edge>
    <edge id="E4" from="J5" to="J6" priority="-1">
        <lane id="E4_0" index="0" speed="13.89" length="32.19" shape="10.95,34.39 6.09,66.21"/>
    </edge>
    <edge id="E5" from="J6" to="J1" priority="-1">
        <lane id="E5_0" index="0" speed="13.89" length="34.22" shape="6.84,67.82 36.10,85.55"/>
    </edge>
    <edge id="E6" from="J5" to="J7" priority="-1">
        <lane id="E6_0" index="0" speed="13.89" length="27.98" shape="4.12,25.37 -18.22,8.51"/>
    </edge>
    <edge id="E7" from="J7" to="J8" priority="-1">
        <lane id="E7_0" index="0" speed="13.89" length="58.11" shape="-18.80,6.79 -2.48,-48.98"/>
    </edge>
    <edge id="E8" from="J8" to="J9" priority="-1">
        <lane id="E8_0" index="0" speed="13.89" length="51.72" shape="-1.06,-50.13 50.54,-53.73"/>
    </edge>
    <edge id="E9" from="J9" to="J10" priority="-1">
        <lane id="E9_0" index="0" speed="13.89" length="36.78" shape="52.00,-53.00 71.91,-22.08"/>
    </edge>

    <junction id="J1" type="priority" x="36.45" y="87.63" incLanes="E5_0" intLanes=":J1_0_0" shape="37.78,87.27 36.93,84.18 35.28,86.92 36.08,87.27 36.49,87.36 36.91,87.39 37.35,87.36">
        <request index="0" response="0" foes="0" cont="0"/>
    </junction>
    <junction id="J10" type="priority" x="70.57" y="-21.22" incLanes="E9_0" intLanes=":J10_0_0" shape="73.26,-22.95 70.57,-21.22 73.69,-20.52 73.77,-21.37 73.73,-21.78 73.63,-22.18 73.47,-22.57">
        <request index="0" response="0" foes="0" cont="0"/>
    </junction>
    <junction id="J2" type="priority" x="77.44" y="76.33" incLanes="E0_0" intLanes=":J2_0_0" shape="77.84,74.41 74.71,73.76 75.56,76.85 76.65,76.34 77.07,75.98 77.41,75.53 77.67,75.01">
        <request index="0" response="0" foes="0" cont="0"/>
    </junction>
    <junction id="J3" type="priority" x="84.39" y="42.64" incLanes="E1_0" intLanes=":J3_0_0" shape="83.58,41.50 80.98,43.36 84.11,44.01 84.18,43.12 84.12,42.70 84.00,42.28 83.82,41.89">
        <request index="0" response="0" foes="0" cont="0"/>
    </junction>
    <junction id="J4" type="priority" x="62.96" y="12.72" incLanes="E2_0 E10_0 E11_0" intLanes=":J4_0_0 :J4_2_0" shape="64.50,20.37 67.10,18.51 66.41,16.22 66.38,14.50 66.55,12.41 66.92,9.94 67.50,7.09 64.38,6.39 63.30,8.14 62.26,8.94 60.90,9.70 59.20,10.41 57.17,11.07 58.96,17.22 60.78,17.22 61.70,17.61 62.63,18.27 63.56,19.19">
        <request index="0" response="00" foes="10" cont="0"/>
        <request index="1" response="01" foes="01" cont="1"/>
    </junction>
    <junction id="J5" type="priority" x="10.31" y="28.03" incLanes="-E11_0" intLanes=":J5_0_0 :J5_1_0" shape="15.61,29.82 13.82,23.68 11.72,24.23 9.87,24.59 8.29,24.76 6.96,24.73 5.89,24.51 5.08,24.09 3.15,26.64 5.16,28.24 6.78,29.69 8.01,31.01 8.85,32.19 9.31,33.24 9.37,34.15 12.53,34.63 13.15,32.28 13.62,31.38 14.18,30.67 14.85,30.15">
        <request index="0" response="00" foes="00" cont="0"/>
        <request index="1" response="00" foes="00" cont="0"/>
    </junction>
    <junction id="J6" type="priority" x="4.18" y="68.08" incLanes="E4_0" intLanes=":J6_0_0" shape="6.01,69.19 7.67,66.45 4.50,65.97 4.53,67.26 4.72,67.83 5.03,68.34 5.46,68.79">
        <request index="0" response="0" foes="0" cont="0"/>
    </junction>
    <junction id="J7" type="priority" x="-17.26" y="7.24" incLanes="E6_0" intLanes=":J7_0_0" shape="-19.19,9.79 -17.26,7.24 -20.33,6.34 -20.48,7.67 -20.36,8.26 -20.10,8.82 -19.71,9.33">
        <request index="0" response="0" foes="0" cont="0"/>
    </junction>
    <junction id="J8" type="priority" x="-0.95" y="-48.53" incLanes="E7_0" intLanes=":J8_0_0" shape="-0.95,-48.53 -1.17,-51.72 -2.47,-51.40 -2.99,-51.07 -3.42,-50.64 -3.76,-50.09 -4.02,-49.43">
        <request index="0" response="0" foes="0" cont="0"/>
    </junction>
    <junction id="J9" type="priority" x="50.65" y="-52.14" incLanes="E8_0" intLanes=":J9_0_0" shape="50.65,-52.14 53.34,-53.87 52.56,-54.74 52.10,-55.03 51.59,-55.23 51.03,-55.33 50.43,-55.33">
        <request index="0" response="0" foes="0" cont="0"/>
    </junction>

    <junction id=":J4_2_0" type="internal" x="61.51" y="14.17" incLanes=":J4_1_0 E2_0" intLanes=":J4_0_0"/>

    <connection from="-E11" to="E4" fromLane="0" toLane="0" via=":J5_0_0" dir="r" state="M"/>
    <connection from="-E11" to="E6" fromLane="0" toLane="0" via=":J5_1_0" dir="l" state="M"/>
    <connection from="E0" to="E1" fromLane="0" toLane="0" via=":J2_0_0" dir="r" state="M"/>
    <connection from="E1" to="E2" fromLane="0" toLane="0" via=":J3_0_0" dir="r" state="M"/>
    <connection from="E10" to="-E11" fromLane="0" toLane="0" via=":J4_1_0" dir="l" state="m"/>
    <connection from="E2" to="-E11" fromLane="0" toLane="0" via=":J4_0_0" dir="r" state="M"/>
    <connection from="E4" to="E5" fromLane="0" toLane="0" via=":J6_0_0" dir="r" state="M"/>
    <connection from="E5" to="E0" fromLane="0" toLane="0" via=":J1_0_0" dir="r" state="M"/>
    <connection from="E6" to="E7" fromLane="0" toLane="0" via=":J7_0_0" dir="l" state="M"/>
    <connection from="E7" to="E8" fromLane="0" toLane="0" via=":J8_0_0" dir="l" state="M"/>
    <connection from="E8" to="E9" fromLane="0" toLane="0" via=":J9_0_0" dir="l" state="M"/>
    <connection from="E9" to="E10" fromLane="0" toLane="0" via=":J10_0_0" dir="l" state="M"/>

    <connection from=":J1_0" to="E0" fromLane="0" toLane="0" dir="r" state="M"/>
    <connection from=":J10_0" to="E10" fromLane="0" toLane="0" dir="l" state="M"/>
    <connection from=":J2_0" to="E1" fromLane="0" toLane="0" dir="r" state="M"/>
    <connection from=":J3_0" to="E2" fromLane="0" toLane="0" dir="r" state="M"/>
    <connection from=":J4_0" to="-E11" fromLane="0" toLane="0" dir="r" state="M"/>
    <connection from=":J4_1" to="-E11" fromLane="0" toLane="0" via=":J4_2_0" dir="l" state="m"/>
    <connection from=":J4_2" to="-E11" fromLane="0" toLane="0" dir="l" state="M"/>
    <connection from=":J5_0" to="E4" fromLane="0" toLane="0" dir="r" state="M"/>
    <connection from=":J5_1" to="E6" fromLane="0" toLane="0" dir="l" state="M"/>
    <connection from=":J6_0" to="E5" fromLane="0" toLane="0" dir="r" state="M"/>
    <connection from=":J7_0" to="E7" fromLane="0" toLane="0" dir="l" state="M"/>
    <connection from=":J8_0" to="E8" fromLane="0" toLane="0" dir="l" state="M"/>
    <connection from=":J9_0" to="E9" fromLane="0" toLane="0" dir="l" state="M"/>

</net>
