<?xml version="1.0" encoding="UTF-8"?>

<!-- generated on 2021-12-29 22:15:15 by Eclipse SUMO GUI Version 1.11.0
-->

<configuration xmlns:xsi="http://www.w3.org/2001/XMLSchema-instance" xsi:noNamespaceSchemaLocation="http://sumo.dlr.de/xsd/sumoConfiguration.xsd">

    <input>
        <net-file value="V:\PythonProjects\SUMOtest\map\test.net.xml"/>
        <route-files value="V:\PythonProjects\SUMOtest\map\test.rou.xml"/>
        <additional-files value="V:\PythonProjects\SUMOtest\map\test.add.xml"/>
    </input>
    <gui_only>
        <start value="t"/>
        <quit-on-end value="e"/>
    </gui_only>
</configuration>
